9016928_1
  -OEChem-12082310493D

 15 15  0     0  0  0  0  0  0999 V2000
   -1.9077   -0.2329    3.7177 C   0  0  0  0  0  0  0  0  0  0  0  0
    0.3485   -0.9645    0.7778 C   0  0  0  0  0  0  0  0  0  0  0  0
   -0.5536   -1.1782    1.7989 C   0  0  0  0  0  0  0  0  0  0  0  0
   -1.0166   -0.0955    2.6865 C   0  0  0  0  0  0  0  0  0  0  0  0
   -2.0124    1.0661    4.2442 C   0  0  0  0  0  0  0  0  0  0  0  0
   -2.8380    1.5153    5.3764 C   0  0  0  0  0  0  0  0  0  0  0  0
   -1.0010   -2.4765    1.9470 Np  0  0  0  0  0  0  0  0  0  0  0  0
   -1.2449    1.9421    3.5897 N   0  0  0  0  0  0  0  0  0  0  0  0
   -0.6138    1.1980    2.6001 O   0  0  0  0  0  0  0  0  0  0  0  0
    0.6578   -2.4425   -0.0354 U   0  0  0  0  0  0  0  0  0  0  0  0
   -2.4085   -1.1334    4.0433 H   0  0  0  0  0  0  0  0  0  0  0  0
    0.8323   -0.0457    0.4758 H   0  0  0  0  0  0  0  0  0  0  0  0
   -2.2875    1.4391    6.3303 H   0  0  0  0  0  0  0  0  0  0  0  0
   -3.1647    2.5652    5.2654 H   0  0  0  0  0  0  0  0  0  0  0  0
   -3.7644    0.9215    5.4801 H   0  0  0  0  0  0  0  0  0  0  0  0
  1  4  2  0  0  0  0
  1  5  1  0  0  0  0
  2  3  2  0  0  0  0
  2 10  1  0  0  0  0
  3  4  1  0  0  0  0
  3  7  1  0  0  0  0
  4  9  1  0  0  0  0
  5  6  1  0  0  0  0
  5  8  2  0  0  0  0
  8  9  1  0  0  0  0
  1 11  1  0  0  0  0
  2 12  1  0  0  0  0
  6 13  1  0  0  0  0
  6 14  1  0  0  0  0
  6 15  1  0  0  0  0
M  END
> <energy>
8.570006370544434

$$$$
